In-Reply-To: mbeaving@bnr.ca's message of Tue, 20 Apr 1993 18:45:30 GMT
Message-ID: <BD.93Apr21150156@bd.UUCP>
Sender: usenet@fluent@dartmouth.EDU
Reply-To: bd%fluent@dartmouth.EDU
Organization: Fluent Inc., Lebanon NH
References: <222834@mavenry.altcit.eskimo.com> <1993Apr20.184530.16043@bnr.ca>
Distribution: na
Date: 21 Apr 93 15:01:56
Lines: 7

mbeaving@bnr.ca (Michael Beavington) writes:

>The down side is that when I'm in my cage, I have on numerous occasions
>slammed my hand into the rolled up window in an effort to wave at
>a passing biker.  Ow.

Shouldn't this be in the DWI thread?
